data/IEEETestCases/IEEE 30 Bus/IEEE_30_VLN.Txt

SYMMETRICAL COMPONENT VOLTAGES BY BUS (for 3-phase buses)

Bus   Mag:   V1 (kV)    p.u.     V2 (kV)   %V2/V1    V0 (kV)    %V0/V1

b1       80.78       1.06  3.948E-008  4.887E-008 5.255E-009 6.505E-009
b2        79.5      1.043  3.898E-008  4.904E-008 4.92E-009 6.188E-009
b3       77.79      1.021  3.82E-008  4.911E-008 4.73E-009 6.081E-009
b4        77.1      1.012  3.792E-008  4.918E-008 4.777E-009 6.195E-009
b5          77       1.01  3.814E-008  4.953E-008 5.557E-009 7.217E-009
b6       76.99       1.01  3.794E-008  4.928E-008 4.967E-009 6.452E-009
b7        76.4      1.002  3.774E-008  4.94E-008 5.181E-009 6.781E-009
b8       76.96       1.01  3.796E-008  4.933E-008 5.075E-009 6.594E-009
b12      20.14      1.057  9.974E-009  4.952E-008 1.337E-009 6.641E-009
b14      19.86      1.042  9.843E-009  4.956E-008 1.326E-009 6.677E-009
b15      19.77      1.038  9.799E-009  4.956E-008 1.316E-009 6.657E-009
b16       19.9      1.044  9.858E-009  4.954E-008 1.325E-009 6.66E-009
b17      19.81       1.04  9.819E-009  4.956E-008 1.336E-009 6.743E-009
b18      19.59      1.028  9.715E-009  4.959E-008 1.319E-009 6.734E-009
b19      19.54      1.026  9.693E-009  4.96E-008 1.323E-009 6.772E-009
b20      19.62       1.03  9.73E-009  4.96E-008 1.33E-009 6.779E-009
b10      19.91      1.045  9.868E-009  4.956E-008 1.352E-009 6.79E-009
b21      19.68      1.033  9.753E-009  4.957E-008 1.329E-009 6.754E-009
b22      19.69      1.033  9.758E-009  4.957E-008 1.33E-009 6.757E-009
b23      19.57      1.027  9.702E-009  4.957E-008 1.307E-009 6.676E-009
b24      19.46      1.022  9.649E-009  4.957E-008 1.309E-009 6.723E-009
b25      19.38      1.017  9.61E-009  4.958E-008 1.307E-009 6.744E-009
b26      19.05     0.9996  9.444E-009  4.959E-008 1.269E-009 6.662E-009
b27      19.49      1.023  9.665E-009  4.958E-008 1.324E-009 6.789E-009
b29      19.12      1.003  9.491E-009  4.965E-008 1.318E-009 6.892E-009
b30       18.9     0.9919  9.394E-009  4.971E-008 1.328E-009 7.029E-009
b28      76.72      1.007  3.783E-008  4.931E-008 4.992E-009 6.506E-009
b9      0.6068      1.051  3.002E-010  4.947E-008 4.046E-011 6.668E-009
b11      6.872      1.082  3.403E-009  4.952E-008 4.576E-010 6.659E-009
b13      6.802      1.071  3.37E-009  4.954E-008 4.517E-010 6.64E-009
